Version 4
SHEET 1 2972 2004
WIRE 1072 -544 1072 -608
WIRE 1072 -384 1072 -464
WIRE 1072 -320 1072 -384
WIRE 896 176 720 176
WIRE 1616 176 896 176
WIRE 208 240 192 240
WIRE 384 240 320 240
WIRE 896 256 896 176
WIRE 320 288 320 240
WIRE 208 304 208 240
WIRE 272 304 208 304
WIRE 272 352 208 352
WIRE 896 384 896 336
WIRE 1056 384 896 384
WIRE 1152 384 1056 384
WIRE 896 400 896 384
WIRE 208 416 208 352
WIRE 1056 416 1056 384
WIRE 976 448 896 448
WIRE 848 480 640 480
WIRE 208 544 208 496
WIRE 320 544 320 368
WIRE 320 544 208 544
WIRE 896 576 896 496
WIRE 896 576 736 576
WIRE 976 576 976 448
WIRE 976 576 896 576
WIRE 1056 576 1056 480
WIRE 1056 576 976 576
WIRE 1568 576 1056 576
WIRE 320 592 320 544
FLAG 1072 -320 0
FLAG 1072 -608 VCC
FLAG 720 176 VCC
FLAG 736 576 VSS
FLAG 1072 -384 VSS
FLAG 1152 384 U_OUT
FLAG 640 480 U_IN
FLAG 384 240 U_IN
FLAG 192 240 U_OUT
FLAG 320 592 0
DATAFLAG 1056 176 ""
DATAFLAG 1056 384 ""
DATAFLAG 736 480 ""
DATAFLAG 976 256 "Id(Mn1)"
SYMBOL voltage 1072 -560 R0
WINDOW 123 0 0 Left 0
WINDOW 39 0 0 Left 0
SYMATTR InstName VCC
SYMATTR Value {VCC}
SYMBOL nmos4 848 400 R0
SYMATTR InstName Mn1
SYMATTR Value nch
SYMATTR Value2 l=lset w=wnset
SYMBOL res 880 240 R0
SYMATTR InstName R1
SYMATTR Value 90k
SYMBOL cap 1040 416 R0
SYMATTR InstName C1
SYMATTR Value 1p
SYMBOL e 320 272 R0
SYMATTR InstName E1
SYMATTR Value 1Meg
SYMBOL voltage 208 400 R0
WINDOW 123 0 0 Left 0
WINDOW 39 0 0 Left 0
WINDOW 3 6 98 Left 2
SYMATTR Value {VCC/2}
SYMATTR InstName VCC2
TEXT 1208 -536 Left 2 !.lib ../models/cmos018.txt\n.param VCC=1.8\n.param lset=2u
TEXT 1336 208 Left 2 !.param wnset=4.55u
TEXT 1336 280 Left 2 !.op
