Version 4
SHEET 1 7274800 2004
WIRE 1072 -544 1072 -608
WIRE 1072 -384 1072 -464
WIRE 1072 -320 1072 -384
WIRE 496 176 400 176
WIRE 576 176 496 176
WIRE 896 176 576 176
WIRE 976 176 896 176
WIRE -16 208 -112 208
WIRE 192 208 96 208
WIRE 96 256 96 208
WIRE 576 256 576 176
WIRE 896 256 896 176
WIRE -16 272 -16 208
WIRE 48 272 -16 272
WIRE 496 304 496 176
WIRE 576 304 496 304
WIRE 976 304 976 176
WIRE 976 304 896 304
WIRE 48 320 -16 320
WIRE 656 336 624 336
WIRE 848 336 656 336
WIRE 896 352 896 336
WIRE -16 368 -16 320
WIRE 896 384 896 352
WIRE 1056 384 896 384
WIRE 1152 384 1056 384
WIRE 576 400 576 352
WIRE 656 400 656 336
WIRE 656 400 576 400
WIRE 896 400 896 384
WIRE 1056 416 1056 384
WIRE 576 432 576 400
WIRE 976 448 896 448
WIRE 848 480 720 480
WIRE -16 512 -16 448
WIRE 96 512 96 336
WIRE 96 512 -16 512
WIRE 96 544 96 512
WIRE 576 576 576 512
WIRE 576 576 384 576
WIRE 896 576 896 496
WIRE 896 576 576 576
WIRE 976 576 976 448
WIRE 976 576 896 576
WIRE 1056 576 1056 480
WIRE 1056 576 976 576
FLAG 1072 -320 0
FLAG 1072 -608 VCC
FLAG 400 176 VCC
FLAG 384 576 VSS
FLAG 1072 -384 VSS
FLAG 1152 384 U_OUT
FLAG 720 480 U_IN
FLAG 192 208 U_IN
FLAG 96 544 0
FLAG -112 208 U_OUT
DATAFLAG 1056 384 ""
DATAFLAG 720 176 ""
DATAFLAG 736 336 ""
DATAFLAG 800 480 ""
DATAFLAG 928 240 "Id(Mn1)"
SYMBOL voltage 1072 -560 R0
WINDOW 123 0 0 Left 0
WINDOW 39 0 0 Left 0
SYMATTR InstName VCC
SYMATTR Value {VCC}
SYMBOL nmos4 848 400 R0
SYMATTR InstName Mn1
SYMATTR Value nch
SYMATTR Value2 l=lset w=wnset
SYMBOL res 560 416 R0
SYMATTR InstName R1
SYMATTR Value 117k
SYMBOL cap 1040 416 R0
SYMATTR InstName C1
SYMATTR Value 1p
SYMBOL voltage -16 352 R0
WINDOW 39 0 0 Left 0
WINDOW 3 13 100 Left 2
SYMATTR Value {VCC/2}
SYMATTR InstName VCC2
SYMBOL pmos4 848 256 R0
SYMATTR InstName Mp1
SYMATTR Value pch
SYMATTR Value2 l=lset w=wpset
SYMBOL pmos4 624 256 M0
SYMATTR InstName Mp2
SYMATTR Value pch
SYMATTR Value2 l=lset w=wpset
SYMBOL e 96 240 R0
SYMATTR InstName E1
SYMATTR Value 1Meg
TEXT 1208 -536 Left 2 !.lib ../models/cmos018.txt\n.param VCC=1.8\n.param lset=2u
TEXT 1064 208 Left 2 !.param wnset=4.55u wpset=16.66u
TEXT 1064 256 Left 2 !.op
