Version 4
SHEET 1 2972 2004
WIRE 768 -32 736 -32
WIRE 864 -32 768 -32
WIRE 1184 -32 864 -32
WIRE 1264 -32 1184 -32
WIRE 1568 -32 1264 -32
WIRE 864 32 864 -32
WIRE 1184 32 1184 -32
WIRE 1568 32 1568 -32
WIRE 768 80 768 -32
WIRE 864 80 768 80
WIRE 1264 80 1264 -32
WIRE 1264 80 1184 80
WIRE 352 96 352 32
WIRE 1072 112 912 112
WIRE 1136 112 1072 112
WIRE 1520 112 1376 112
WIRE 1072 160 1072 112
WIRE 1184 160 1184 128
WIRE 1184 160 1072 160
WIRE 1376 160 1376 112
WIRE 1376 160 1184 160
WIRE 1184 224 1184 160
WIRE 352 256 352 176
WIRE 1280 272 1184 272
WIRE 864 304 864 128
WIRE 1136 304 864 304
WIRE 352 320 352 256
WIRE 864 352 864 304
WIRE 864 400 784 400
WIRE 1184 432 1184 320
WIRE 1184 432 912 432
WIRE 1184 464 1184 432
WIRE 784 576 784 400
WIRE 784 576 736 576
WIRE 864 576 864 448
WIRE 864 576 784 576
WIRE 1184 576 1184 544
WIRE 1184 576 864 576
WIRE 1280 576 1280 272
WIRE 1280 576 1184 576
WIRE 1568 576 1280 576
FLAG 352 320 0
FLAG 352 32 VCC
FLAG 736 -32 VCC
FLAG 736 576 VSS
FLAG 352 256 VSS
SYMBOL voltage 352 80 R0
WINDOW 123 0 0 Left 0
WINDOW 39 0 0 Left 0
SYMATTR InstName VCC
SYMATTR Value {VCC}
SYMBOL pmos4 912 32 M0
SYMATTR InstName Mp1
SYMATTR Value pch
SYMBOL pmos4 1136 32 R0
SYMATTR InstName Mp2
SYMATTR Value pch
SYMBOL pmos4 1520 32 R0
SYMATTR InstName Mp3
SYMATTR Value pch
SYMBOL nmos4 912 352 M0
SYMATTR InstName Mn1
SYMATTR Value nch
SYMATTR Value2 l=lset w=wnset
SYMBOL nmos4 1136 224 R0
SYMATTR InstName Mn2
SYMATTR Value nch
SYMATTR Value2 l=lset w=wnset
SYMBOL res 1168 448 R0
SYMATTR InstName R1
TEXT 1600 -416 Left 2 !.lib ../models/cmos018.txt\n.param VCC=1.8\n.param lset=2u
TEXT 1872 232 Left 2 ;.dc Vout 0 {VCC} 1m
TEXT 1888 72 Left 2 !.param wnset=9.09u
