Version 4
SHEET 1 880 680
SYMBOL voltage 96 48 R0
SYMATTR InstName V1
SYMBOL voltage 0 48 R0
SYMATTR InstName V2
