Version 4
SHEET 1 2972 2004
WIRE 928 -272 928 -336
WIRE 928 -112 928 -192
WIRE 928 -48 928 -112
WIRE 1040 176 720 176
WIRE 1392 176 1040 176
WIRE 1040 224 1040 176
WIRE 944 272 784 272
WIRE 784 320 784 272
WIRE 1152 320 1136 320
WIRE 1232 320 1152 320
WIRE 1360 320 1232 320
WIRE 1376 320 1360 320
WIRE 944 384 864 384
WIRE 1360 432 1360 320
WIRE 1040 448 1040 416
WIRE 976 544 912 544
WIRE 1008 544 976 544
WIRE 1168 544 1088 544
WIRE 864 576 864 384
WIRE 1168 576 1168 544
WIRE 912 592 912 544
WIRE 976 592 976 544
WIRE 1232 592 1232 320
WIRE 1232 592 1216 592
WIRE 1232 640 1216 640
WIRE 784 688 784 400
WIRE 784 688 736 688
WIRE 864 688 864 656
WIRE 864 688 784 688
WIRE 912 688 912 640
WIRE 912 688 864 688
WIRE 976 688 976 656
WIRE 976 688 912 688
WIRE 1168 688 1168 656
WIRE 1168 688 976 688
WIRE 1232 688 1232 640
WIRE 1232 688 1168 688
WIRE 1360 688 1360 496
WIRE 1360 688 1232 688
WIRE 1392 688 1360 688
FLAG 928 -48 0
FLAG 928 -336 VCC
FLAG 720 176 VCC
FLAG 736 688 VSS
FLAG 928 -112 VSS
FLAG 1040 448 VSS
FLAG 1360 320 U_OUT
SYMBOL voltage 928 -288 R0
WINDOW 123 0 0 Left 0
WINDOW 39 0 0 Left 0
SYMATTR InstName VCC
SYMATTR Value {VCC}
SYMBOL customOTA 1024 256 R0
SYMATTR InstName X1
SYMBOL voltage 784 304 R0
WINDOW 0 -96 10 Left 2
WINDOW 3 -101 96 Left 2
WINDOW 123 -101 124 Left 2
WINDOW 39 0 0 Left 0
SYMATTR InstName V_AGND
SYMATTR Value {VCC/2}
SYMATTR Value2 AC 1
SYMBOL e 1168 560 M0
SYMATTR InstName E1
SYMATTR Value 1
SYMBOL e 864 560 M0
SYMATTR InstName E2
SYMATTR Value 1
SYMBOL cap 1344 432 R0
SYMATTR InstName C_LOAD
SYMATTR Value 50p
SYMBOL cap 960 592 R0
SYMATTR InstName C_RC
SYMATTR Value 160µ
SYMBOL res 1104 528 R90
WINDOW 0 0 56 VBottom 2
WINDOW 3 32 56 VTop 2
SYMATTR InstName R_RC4
SYMATTR Value 100Meg
TEXT 1064 -264 Left 2 !.lib ../models/cmos018.txt\n.param VCC=1.8\n.param lset=2u
TEXT 1512 352 Left 2 !.ac dec 20 100 100meg
