Version 4
SHEET 1 2972 2004
WIRE 928 -272 928 -336
WIRE 928 -112 928 -192
WIRE 928 -48 928 -112
WIRE 1040 176 720 176
WIRE 1392 176 1040 176
WIRE 1040 224 1040 176
WIRE 944 272 784 272
WIRE 784 320 784 272
WIRE 1200 320 1152 320
WIRE 1360 320 1200 320
WIRE 1376 320 1360 320
WIRE 944 384 864 384
WIRE 1104 416 1040 416
WIRE 1360 432 1360 320
WIRE 864 480 864 384
WIRE 912 480 864 480
WIRE 1200 480 1200 320
WIRE 1200 480 992 480
WIRE 864 496 864 480
WIRE 864 592 864 576
WIRE 864 672 864 656
WIRE 784 688 784 400
WIRE 784 688 736 688
WIRE 864 688 864 672
WIRE 864 688 784 688
WIRE 1360 688 1360 496
WIRE 1360 688 864 688
WIRE 1392 688 1360 688
FLAG 928 -48 0
FLAG 928 -336 VCC
FLAG 720 176 VCC
FLAG 736 688 VSS
FLAG 928 -112 VSS
FLAG 1104 416 VSS
FLAG 1360 320 U_OUT
DATAFLAG 1376 320 ""
SYMBOL voltage 928 -288 R0
WINDOW 123 0 0 Left 0
WINDOW 39 0 0 Left 0
SYMATTR InstName VCC
SYMATTR Value {VCC}
SYMBOL customOTA 1024 256 R0
SYMATTR InstName X1
SYMBOL voltage 784 304 R0
WINDOW 0 -96 10 Left 2
WINDOW 3 -101 96 Left 2
WINDOW 123 -101 124 Left 2
WINDOW 39 0 0 Left 0
SYMATTR InstName V_AGND
SYMATTR Value {VCC/2}
SYMATTR Value2 AC 1
SYMBOL cap 1344 432 R0
SYMATTR InstName C_LOAD
SYMATTR Value 50p
SYMBOL voltage 864 576 R0
SYMATTR InstName V_in
SYMATTR Value 1
SYMBOL res 848 480 R0
SYMATTR InstName R1
SYMATTR Value 100k
SYMBOL res 1008 464 R90
WINDOW 0 0 56 VBottom 2
WINDOW 3 32 56 VTop 2
SYMATTR InstName R2
SYMATTR Value 1Meg
TEXT 1064 -264 Left 2 !.lib ../models/cmos018.txt\n.param VCC=1.8\n.param lset=2u
TEXT 1512 352 Left 2 !.dc V_in 0 {VCC} 1m
