Version 4
SHEET 1 2972 2004
WIRE 928 -272 928 -336
WIRE 928 -112 928 -192
WIRE 928 -48 928 -112
WIRE 1040 176 720 176
WIRE 1392 176 1040 176
WIRE 1040 320 1040 176
WIRE 944 368 784 368
WIRE 1200 416 1152 416
WIRE 1296 416 1200 416
WIRE 944 480 912 480
WIRE 784 512 784 368
WIRE 912 544 912 480
WIRE 1200 544 1200 416
WIRE 1200 544 912 544
WIRE 784 688 784 592
WIRE 784 688 736 688
WIRE 1040 688 1040 512
WIRE 1040 688 784 688
WIRE 1392 688 1040 688
FLAG 928 -48 0
FLAG 928 -336 VCC
FLAG 720 176 VCC
FLAG 736 688 VSS
FLAG 928 -112 VSS
DATAFLAG 1296 416 ""
SYMBOL voltage 928 -288 R0
WINDOW 123 0 0 Left 0
WINDOW 39 0 0 Left 0
SYMATTR InstName VCC
SYMATTR Value {VCC}
SYMBOL customOTA 1024 352 R0
SYMATTR InstName X1
SYMBOL voltage 784 496 R0
SYMATTR InstName V_AGND
SYMATTR Value {VCC/2}
TEXT 1064 -264 Left 2 !.lib ../models/cmos018.txt\n.param VCC=1.8\n.param lset=2u
TEXT 1512 352 Left 2 !.op
