Version 4
SymbolType BLOCK
LINE Normal -48 -30 -48 130
LINE Normal 96 65 -48 -30
LINE Normal -48 161 96 65
LINE Normal -48 130 -48 161
PIN 0 0 TOP 8
PINATTR PinName VCC
PINATTR SpiceOrder 1
PIN 0 128 BOTTOM 8
PINATTR PinName VSS
PINATTR SpiceOrder 2
PIN -48 48 LEFT 8
PINATTR PinName U_INP
PINATTR SpiceOrder 3
PIN -48 80 LEFT 8
PINATTR PinName U_INN
PINATTR SpiceOrder 4
PIN 96 64 RIGHT 8
PINATTR PinName U_OUT
PINATTR SpiceOrder 5
