Version 4
SHEET 1 2972 996
WIRE 736 -304 608 -304
WIRE 1216 -304 992 -304
WIRE 736 -256 736 -304
WIRE 1216 -208 1216 -304
WIRE 992 -192 992 -304
WIRE 1040 -192 992 -192
WIRE 432 -160 432 -224
WIRE 736 -144 736 -176
WIRE 848 -144 736 -144
WIRE 736 -128 736 -144
WIRE 992 -128 992 -192
WIRE 736 -80 656 -80
WIRE 1072 -80 992 -80
WIRE 848 -48 848 -144
WIRE 848 -48 784 -48
WIRE 944 -48 848 -48
WIRE 432 64 432 -80
WIRE 656 64 656 -80
WIRE 736 64 736 -32
WIRE 736 64 656 64
WIRE 864 64 736 64
WIRE 992 64 992 -32
WIRE 992 64 864 64
WIRE 1072 64 1072 -80
WIRE 1072 64 992 64
WIRE 864 112 864 64
WIRE 1216 112 1216 -128
FLAG 864 112 0
FLAG 432 64 0
FLAG 432 -224 VCC
FLAG 608 -304 VCC
FLAG 1040 -192 OUTPUT
FLAG 1216 112 0
SYMBOL nmos4 784 -128 M0
SYMATTR InstName M1
SYMATTR Value nch
SYMATTR Value2 l=l1set w=w1set
SYMBOL voltage 432 -176 R0
WINDOW 123 0 0 Left 0
WINDOW 39 0 0 Left 0
SYMATTR InstName VCC
SYMATTR Value {VCC}
SYMBOL nmos4 944 -128 R0
SYMATTR InstName M2
SYMATTR Value nch
SYMATTR Value2 l=l2set w=w2set
SYMBOL res 720 -272 R0
SYMATTR InstName R1
SYMATTR Value 55k
SYMBOL voltage 1216 -224 R0
WINDOW 123 0 0 Left 0
WINDOW 39 0 0 Left 0
SYMATTR InstName Vout
SYMATTR Value 0
TEXT 1600 -416 Left 2 !.lib ../models/cmos018.txt\n.param VCC=1.8
TEXT 1408 -208 Left 2 !.param l1set=0.2u w1set=2u\n.param l2set=0.2u w2set=5u\n\n.dc Vout 0 {VCC} 1m
